INPUT/ligand_7e08e900ab.pdb
 OpenBabel06141916423D

 64 68  0  0  1  0  0  0  0  0999 V2000
   16.9890    9.0060   17.9520 N   0  0  0  0  0  0  0  0  0  0  0  0
   16.2400    8.6210   20.2690 C   0  0  0  0  0  0  0  0  0  0  0  0
   15.7820    7.7660   21.2490 C   0  0  0  0  0  0  0  0  0  0  0  0
   15.3750    6.4870   20.9090 C   0  0  0  0  0  0  0  0  0  0  0  0
   15.3000    6.0830   19.5890 C   0  0  0  0  0  0  0  0  0  0  0  0
    8.6120    2.9830   20.4130 N   0  0  0  0  0  0  0  0  0  0  0  0
   12.3680    4.9770   21.8300 C   0  0  1  0  0  0  0  0  0  0  0  0
   20.7400   12.9320   13.2940 C   0  0  0  0  0  0  0  0  0  0  0  0
   18.1680   10.7810   15.9970 C   0  0  1  0  0  0  0  0  0  0  0  0
   21.2210   12.5320   14.5340 C   0  0  0  0  0  0  0  0  0  0  0  0
   15.7780    5.7560   23.3430 O   0  0  0  0  0  0  0  0  0  0  0  0
   15.1780    4.0470   21.6730 O   0  0  0  0  0  0  0  0  0  0  0  0
   16.3100    8.1960   18.9350 C   0  0  0  0  0  0  0  0  0  0  0  0
   15.7830    6.9410   18.6100 C   0  0  0  0  0  0  0  0  0  0  0  0
   15.0170    5.3500   22.1940 S   0  0  0  0  0  0  0  0  0  0  0  0
   17.9670    9.3090   15.6520 C   0  0  0  0  0  0  0  0  0  0  0  0
   18.5830   10.9320   17.4580 C   0  0  0  0  0  0  0  0  0  0  0  0
   17.5660   10.2930   18.3870 C   0  0  0  0  0  0  0  0  0  0  0  0
   16.8540    8.7120   16.5100 C   0  0  0  0  0  0  0  0  0  0  0  0
   20.4150   11.8000   15.4050 C   0  0  0  0  0  0  0  0  0  0  0  0
   19.1110   11.4660   15.0470 C   0  0  0  0  0  0  0  0  0  0  0  0
   18.6440   11.8360   13.7820 C   0  0  0  0  0  0  0  0  0  0  0  0
   19.4500   12.5710   12.9120 C   0  0  0  0  0  0  0  0  0  0  0  0
   13.4060    5.4880   22.7010 N   0  0  0  0  0  0  0  0  0  0  0  0
   11.2250    4.3780   22.6600 C   0  0  0  0  0  0  0  0  0  0  0  0
   11.8860    6.0480   20.8650 C   0  0  0  0  0  0  0  0  0  0  0  0
   11.8320    7.2990   21.3820 O   0  5  0  0  0  0  0  0  0  0  0  0
   11.5670    5.7640   19.7590 O   0  0  0  0  0  0  0  0  0  0  0  0
    6.5640    6.1450   20.6610 C   0  0  0  0  0  0  0  0  0  0  0  0
    6.8650    4.8350   20.2560 C   0  0  0  0  0  0  0  0  0  0  0  0
    8.0340    4.2350   20.6570 C   0  0  0  0  0  0  0  0  0  0  0  0
    8.8960    4.9350   21.5390 C   0  0  0  0  0  0  0  0  0  0  0  0
    8.5990    6.2190   21.9380 C   0  0  0  0  0  0  0  0  0  0  0  0
    7.4230    6.8330   21.5150 C   0  0  0  0  0  0  0  0  0  0  0  0
    9.7990    2.8810   21.0680 C   0  0  0  0  0  0  0  0  0  0  0  0
   10.0320    4.0640   21.7800 C   0  0  0  0  0  0  0  0  0  0  0  0
   16.5327    9.5786   20.5188 H   0  0  0  0  0  0  0  0  0  0  0  0
   15.7427    8.0781   22.2319 H   0  0  0  0  0  0  0  0  0  0  0  0
   14.8955    5.1674   19.3378 H   0  0  0  0  0  0  0  0  0  0  0  0
    8.2165    2.2793   19.8494 H   0  0  0  0  0  0  0  0  0  0  0  0
   12.7755    4.1897   21.2309 H   0  0  0  0  0  0  0  0  0  0  0  0
   21.3330   13.4916   12.6613 H   0  0  0  0  0  0  0  0  0  0  0  0
   17.2307   11.2826   15.8758 H   0  0  0  0  0  0  0  0  0  0  0  0
   22.1834   12.7787   14.8132 H   0  0  0  0  0  0  0  0  0  0  0  0
   15.7527    6.6468   17.6213 H   0  0  0  0  0  0  0  0  0  0  0  0
   18.8771    8.7763   15.8334 H   0  0  0  0  0  0  0  0  0  0  0  0
   17.6941    9.2269   14.6206 H   0  0  0  0  0  0  0  0  0  0  0  0
   18.6637   11.9730   17.6920 H   0  0  0  0  0  0  0  0  0  0  0  0
   19.5233   10.4402   17.5955 H   0  0  0  0  0  0  0  0  0  0  0  0
   18.0447   10.1316   19.3303 H   0  0  0  0  0  0  0  0  0  0  0  0
   16.7425   10.9756   18.4153 H   0  0  0  0  0  0  0  0  0  0  0  0
   16.8610    7.6499   16.3802 H   0  0  0  0  0  0  0  0  0  0  0  0
   15.9373    9.1584   16.1856 H   0  0  0  0  0  0  0  0  0  0  0  0
   20.7870   11.5037   16.3209 H   0  0  0  0  0  0  0  0  0  0  0  0
   17.6931   11.5625   13.4888 H   0  0  0  0  0  0  0  0  0  0  0  0
   19.0903   12.8473   11.9850 H   0  0  0  0  0  0  0  0  0  0  0  0
   13.3253    4.9940   23.5897 H   0  0  0  0  0  0  0  0  0  0  0  0
   10.9316    5.0802   23.4121 H   0  0  0  0  0  0  0  0  0  0  0  0
   11.5671    3.4708   23.1126 H   0  0  0  0  0  0  0  0  0  0  0  0
    5.7016    6.6009   20.3242 H   0  0  0  0  0  0  0  0  0  0  0  0
    6.2043    4.3197   19.6535 H   0  0  0  0  0  0  0  0  0  0  0  0
    9.2515    6.7290   22.5538 H   0  0  0  0  0  0  0  0  0  0  0  0
    7.1903    7.7875   21.8308 H   0  0  0  0  0  0  0  0  0  0  0  0
   10.4275    2.0628   21.0442 H   0  0  0  0  0  0  0  0  0  0  0  0
  1 18  1  0  0  0  0
  1 13  1  0  0  0  0
  2  3  2  0  0  0  0
  2 37  1  0  0  0  0
  3 38  1  0  0  0  0
  4  3  1  0  0  0  0
  4 15  1  0  0  0  0
  5  4  2  0  0  0  0
  5 39  1  0  0  0  0
  6 31  1  0  0  0  0
  6 35  1  0  0  0  0
  6 40  1  0  0  0  0
  7 26  1  0  0  0  0
  7 25  1  0  0  0  0
  7 24  1  0  0  0  0
  7 41  1  1  0  0  0
  8 10  1  0  0  0  0
  8 42  1  0  0  0  0
  9 21  1  0  0  0  0
  9 17  1  0  0  0  0
  9 43  1  1  0  0  0
 10 20  2  0  0  0  0
 10 44  1  0  0  0  0
 12 15  2  0  0  0  0
 13  2  1  0  0  0  0
 14 13  2  0  0  0  0
 14  5  1  0  0  0  0
 14 45  1  0  0  0  0
 15 24  1  0  0  0  0
 15 11  2  0  0  0  0
 16  9  1  0  0  0  0
 16 19  1  0  0  0  0
 16 46  1  0  0  0  0
 16 47  1  0  0  0  0
 17 18  1  0  0  0  0
 17 48  1  0  0  0  0
 17 49  1  0  0  0  0
 18 50  1  0  0  0  0
 18 51  1  0  0  0  0
 19  1  1  0  0  0  0
 19 52  1  0  0  0  0
 19 53  1  0  0  0  0
 20 54  1  0  0  0  0
 21 20  1  0  0  0  0
 22 21  2  0  0  0  0
 22 55  1  0  0  0  0
 23  8  2  0  0  0  0
 23 22  1  0  0  0  0
 23 56  1  0  0  0  0
 24 57  1  0  0  0  0
 25 58  1  0  0  0  0
 25 59  1  0  0  0  0
 26 27  1  0  0  0  0
 28 26  2  0  0  0  0
 29 34  2  0  0  0  0
 29 60  1  0  0  0  0
 30 31  2  0  0  0  0
 30 29  1  0  0  0  0
 30 61  1  0  0  0  0
 31 32  1  0  0  0  0
 32 36  1  0  0  0  0
 32 33  2  0  0  0  0
 33 62  1  0  0  0  0
 34 33  1  0  0  0  0
 34 63  1  0  0  0  0
 35 36  2  0  0  0  0
 35 64  1  0  0  0  0
 36 25  1  0  0  0  0
M  CHG  1  27  -1
M  END
$$$$
